* NGSPICE file created from zlc16.ext - technology: sky130A

.subckt zlc16 A[0] A[1] A[2] A[3] A[4] A[5] A[6] A[7] A[8] A[9] A[10] A[11] A[12]
+ A[13] A[14] A[15] Y[0] Y[1] Y[2] Y[3] Y[4] VDD GND
X0 a_4135_n2871# A[12].t0 GND.t243 GND.t242 sky130_fd_pr__nfet_01v8 ad=0.0567 pd=0.69 as=0.1092 ps=1.36 w=0.42 l=0.15
X1 x1.x1.x3.B a_4135_n2871# GND.t25 GND.t24 sky130_fd_pr__nfet_01v8 ad=0.169 pd=1.82 as=0.10025 ps=0.985 w=0.65 l=0.15
X2 a_6766_n6634# x2.x6.A1 a_6307_n6809# VDD.t8 sky130_fd_pr__pfet_01v8_hvt ad=0.0441 pd=0.63 as=0.1932 ps=1.34 w=0.42 l=0.15
X3 a_6424_n6205# A[3].t0 VDD.t227 VDD.t226 sky130_fd_pr__pfet_01v8_hvt ad=0.0441 pd=0.63 as=0.14575 ps=1.335 w=0.42 l=0.15
X4 a_6733_n2871# x1.x1.x3.B GND.t32 GND.t31 sky130_fd_pr__nfet_01v8 ad=0.0567 pd=0.69 as=0.1092 ps=1.36 w=0.42 l=0.15
X5 x1.x4.A a_6733_n2871# GND.t27 GND.t26 sky130_fd_pr__nfet_01v8 ad=0.169 pd=1.82 as=0.10025 ps=0.985 w=0.65 l=0.15
X6 a_6564_n3529# x1.x4.A GND.t71 GND.t70 sky130_fd_pr__nfet_01v8 ad=0.0567 pd=0.69 as=0.10025 ps=0.985 w=0.42 l=0.15
X7 VDD.t219 A[15].t3 a_5121_n2871# VDD.t218 sky130_fd_pr__pfet_01v8_hvt ad=0.14575 pd=1.335 as=0.0441 ps=0.63 w=0.42 l=0.15
X8 a_5791_n5653# x10.A a_5705_n5653# GND.t128 sky130_fd_pr__nfet_01v8 ad=0.0567 pd=0.69 as=0.1176 ps=1.4 w=0.42 l=0.15
X9 a_4850_n3722# x1.x6.A0 a_4850_n3395# GND.t28 sky130_fd_pr__nfet_01v8 ad=0.09975 pd=0.895 as=0.0693 ps=0.75 w=0.42 l=0.15
X10 VDD.t208 A[11].t3 a_5120_n4151# VDD.t207 sky130_fd_pr__pfet_01v8_hvt ad=0.14575 pd=1.335 as=0.0441 ps=0.63 w=0.42 l=0.15
X11 a_6433_n5002# x1.P2 a_6219_n5002# VDD.t51 sky130_fd_pr__pfet_01v8_hvt ad=0.07665 pd=0.785 as=0.1932 ps=1.34 w=0.42 l=0.15
X12 x11.A a_4563_n5002# VDD.t103 VDD.t102 sky130_fd_pr__pfet_01v8_hvt ad=0.26 pd=2.52 as=0.15835 ps=1.395 w=1 l=0.15
X13 VDD.t99 x8.A a_6433_n5002# VDD.t98 sky130_fd_pr__pfet_01v8_hvt ad=0.15835 pd=1.395 as=0.07665 ps=0.785 w=0.42 l=0.15
X14 VDD.t150 a_6736_n6987# a_6766_n6634# VDD.t149 sky130_fd_pr__pfet_01v8_hvt ad=0.0693 pd=0.75 as=0.0441 ps=0.63 w=0.42 l=0.15
X15 a_6261_n6089# A[2].t0 a_6424_n6205# VDD.t238 sky130_fd_pr__pfet_01v8_hvt ad=0.1092 pd=1.36 as=0.0441 ps=0.63 w=0.42 l=0.15
X16 a_5678_n3722# x1.x5.A0 a_5678_n3395# GND.t41 sky130_fd_pr__nfet_01v8 ad=0.09975 pd=0.895 as=0.0693 ps=0.75 w=0.42 l=0.15
X17 VDD.t68 x1.x4.A x1.P2 VDD.t67 sky130_fd_pr__pfet_01v8_hvt ad=0.26 pd=2.52 as=0.26 ps=2.52 w=1 l=0.15
X18 a_7327_n7485# A[5].t0 VDD.t231 VDD.t230 sky130_fd_pr__pfet_01v8_hvt ad=0.0441 pd=0.63 as=0.14575 ps=1.335 w=0.42 l=0.15
X19 a_4730_n6205# x2.x2.x4.A VDD.t7 VDD.t6 sky130_fd_pr__pfet_01v8_hvt ad=0.0441 pd=0.63 as=0.14575 ps=1.335 w=0.42 l=0.15
X20 x10.A a_5391_n5002# VDD.t120 VDD.t119 sky130_fd_pr__pfet_01v8_hvt ad=0.26 pd=2.52 as=0.15835 ps=1.395 w=1 l=0.15
X21 x9.A a_6219_n5002# GND.t108 GND.t107 sky130_fd_pr__nfet_01v8 ad=0.169 pd=1.82 as=0.11285 ps=1.045 w=0.65 l=0.15
X22 x1.x2.x4.A a_5038_n4151# VDD.t1 VDD.t0 sky130_fd_pr__pfet_01v8_hvt ad=0.34 pd=2.68 as=0.14575 ps=1.335 w=1 l=0.15
X23 GND.t51 x1.P2 a_5899_n3395# GND.t50 sky130_fd_pr__nfet_01v8 ad=0.11285 pd=1.045 as=0.0693 ps=0.75 w=0.42 l=0.15
X24 x1.P0 a_4850_n3722# VDD.t64 VDD.t63 sky130_fd_pr__pfet_01v8_hvt ad=0.26 pd=2.52 as=0.15835 ps=1.395 w=1 l=0.15
X25 GND.t188 x2.x5.A1 a_4991_n6282# GND.t187 sky130_fd_pr__nfet_01v8 ad=0.1449 pd=1.11 as=0.1092 ps=1.36 w=0.42 l=0.15
X26 VDD.t156 x2.x5.A0 a_4990_n7562# VDD.t155 sky130_fd_pr__pfet_01v8_hvt ad=0.0693 pd=0.75 as=0.1176 ps=1.4 w=0.42 l=0.15
X27 GND.t155 x2.x5.A0 a_4990_n7562# GND.t154 sky130_fd_pr__nfet_01v8 ad=0.1449 pd=1.11 as=0.1092 ps=1.36 w=0.42 l=0.15
X28 GND.t126 x2.V a_7105_n4809# GND.t125 sky130_fd_pr__nfet_01v8 ad=0.1092 pd=1.36 as=0.0567 ps=0.69 w=0.42 l=0.15
X29 a_7164_n7369# A[4].t0 a_7327_n7485# VDD.t239 sky130_fd_pr__pfet_01v8_hvt ad=0.1092 pd=1.36 as=0.0441 ps=0.63 w=0.42 l=0.15
X30 VDD.t89 x8.A a_4309_n5002# VDD.t88 sky130_fd_pr__pfet_01v8_hvt ad=0.0693 pd=0.75 as=0.1176 ps=1.4 w=0.42 l=0.15
X31 x1.P1 a_5678_n3722# VDD.t55 VDD.t54 sky130_fd_pr__pfet_01v8_hvt ad=0.26 pd=2.52 as=0.15835 ps=1.395 w=1 l=0.15
X32 VDD.t93 x8.A a_5137_n5002# VDD.t92 sky130_fd_pr__pfet_01v8_hvt ad=0.0693 pd=0.75 as=0.1176 ps=1.4 w=0.42 l=0.15
X33 a_6449_n6961# x2.P2 GND.t117 GND.t116 sky130_fd_pr__nfet_01v8 ad=0.0693 pd=0.75 as=0.11285 ps=1.045 w=0.42 l=0.15
X34 VDD.t187 x2.x5.A1 a_4991_n6282# VDD.t186 sky130_fd_pr__pfet_01v8_hvt ad=0.0693 pd=0.75 as=0.1176 ps=1.4 w=0.42 l=0.15
X35 GND.t219 A[9].t1 a_4134_n4151# GND.t218 sky130_fd_pr__nfet_01v8 ad=0.10025 pd=0.985 as=0.0567 ps=0.69 w=0.42 l=0.15
X36 a_6736_n6987# x2.P2 VDD.t110 VDD.t109 sky130_fd_pr__pfet_01v8_hvt ad=0.1176 pd=1.4 as=0.0693 ps=0.75 w=0.42 l=0.15
X37 GND.t54 a_6564_n3529# x1.V GND.t53 sky130_fd_pr__nfet_01v8 ad=0.10025 pd=0.985 as=0.169 ps=1.82 w=0.65 l=0.15
X38 GND.t86 x1.x2.x4.A a_6732_n4151# GND.t85 sky130_fd_pr__nfet_01v8 ad=0.10025 pd=0.985 as=0.0567 ps=0.69 w=0.42 l=0.15
X39 a_7105_n4809# x1.V GND.t75 GND.t74 sky130_fd_pr__nfet_01v8 ad=0.0567 pd=0.69 as=0.10025 ps=0.985 w=0.42 l=0.15
X40 a_5705_n5653# x10.A VDD.t128 VDD.t127 sky130_fd_pr__pfet_01v8_hvt ad=0.0567 pd=0.69 as=0.1176 ps=1.4 w=0.42 l=0.15
X41 a_6055_n2794# x1.x5.A0 VDD.t37 VDD.t36 sky130_fd_pr__pfet_01v8_hvt ad=0.07665 pd=0.785 as=0.15835 ps=1.395 w=0.42 l=0.15
X42 a_6054_n4074# x1.x5.A1 VDD.t58 VDD.t57 sky130_fd_pr__pfet_01v8_hvt ad=0.07665 pd=0.785 as=0.15835 ps=1.395 w=0.42 l=0.15
X43 a_4729_n7485# x2.x1.x4.A VDD.t162 VDD.t161 sky130_fd_pr__pfet_01v8_hvt ad=0.0441 pd=0.63 as=0.14575 ps=1.335 w=0.42 l=0.15
X44 Y[3].t0 a_4785_n5653# GND.t186 GND.t185 sky130_fd_pr__nfet_01v8 ad=0.182 pd=1.86 as=0.1118 ps=1.04 w=0.65 l=0.15
X45 GND.t161 x2.x1.x4.A x2.x5.A0 GND.t160 sky130_fd_pr__nfet_01v8 ad=0.169 pd=1.82 as=0.169 ps=1.82 w=0.65 l=0.15
X46 a_5913_n2969# x1.x1.x5.A0 a_6055_n2794# VDD.t29 sky130_fd_pr__pfet_01v8_hvt ad=0.1932 pd=1.34 as=0.07665 ps=0.785 w=0.42 l=0.15
X47 a_5912_n4249# x1.x2.x5.A0 a_6054_n4074# VDD.t79 sky130_fd_pr__pfet_01v8_hvt ad=0.1932 pd=1.34 as=0.07665 ps=0.785 w=0.42 l=0.15
X48 GND.t182 A[13].t1 a_4135_n2871# GND.t181 sky130_fd_pr__nfet_01v8 ad=0.10025 pd=0.985 as=0.0567 ps=0.69 w=0.42 l=0.15
X49 Y[3].t1 a_4785_n5653# VDD.t185 VDD.t184 sky130_fd_pr__pfet_01v8_hvt ad=0.475 pd=2.95 as=0.16655 ps=1.39 w=1 l=0.15
X50 a_6423_n7485# A[7].t0 VDD.t235 VDD.t234 sky130_fd_pr__pfet_01v8_hvt ad=0.0441 pd=0.63 as=0.14575 ps=1.335 w=0.42 l=0.15
X51 a_5172_n7562# a_4990_n7562# VDD.t168 VDD.t167 sky130_fd_pr__pfet_01v8_hvt ad=0.0441 pd=0.63 as=0.0693 ps=0.75 w=0.42 l=0.15
X52 x1.x1.x3.B a_4135_n2871# VDD.t25 VDD.t24 sky130_fd_pr__pfet_01v8_hvt ad=0.34 pd=2.68 as=0.14575 ps=1.335 w=1 l=0.15
X53 GND.t34 x1.x1.x4.A a_6733_n2871# GND.t33 sky130_fd_pr__nfet_01v8 ad=0.10025 pd=0.985 as=0.0567 ps=0.69 w=0.42 l=0.15
X54 x1.x2.x3.B a_4134_n4151# VDD.t18 VDD.t17 sky130_fd_pr__pfet_01v8_hvt ad=0.34 pd=2.68 as=0.14575 ps=1.335 w=1 l=0.15
X55 x1.x4.A a_6733_n2871# VDD.t27 VDD.t26 sky130_fd_pr__pfet_01v8_hvt ad=0.34 pd=2.68 as=0.14575 ps=1.335 w=1 l=0.15
X56 x1.x3.B a_6732_n4151# VDD.t76 VDD.t75 sky130_fd_pr__pfet_01v8_hvt ad=0.34 pd=2.68 as=0.14575 ps=1.335 w=1 l=0.15
X57 a_6054_n4401# x1.x5.A1 GND.t61 GND.t60 sky130_fd_pr__nfet_01v8 ad=0.0693 pd=0.75 as=0.11285 ps=1.045 w=0.42 l=0.15
X58 GND.t134 x8.B a_5791_n5653# GND.t133 sky130_fd_pr__nfet_01v8 ad=0.1118 pd=1.04 as=0.0567 ps=0.69 w=0.42 l=0.15
X59 x2.P2 x2.x4.A GND.t195 GND.t194 sky130_fd_pr__nfet_01v8 ad=0.169 pd=1.82 as=0.169 ps=1.82 w=0.65 l=0.15
X60 a_4491_n5002# a_4309_n5002# VDD.t87 VDD.t86 sky130_fd_pr__pfet_01v8_hvt ad=0.0441 pd=0.63 as=0.0693 ps=0.75 w=0.42 l=0.15
X61 x2.P2 x2.x4.A VDD.t193 VDD.t192 sky130_fd_pr__pfet_01v8_hvt ad=0.26 pd=2.52 as=0.26 ps=2.52 w=1 l=0.15
X62 GND.t101 x8.A a_6440_n4675# GND.t100 sky130_fd_pr__nfet_01v8 ad=0.11285 pd=1.045 as=0.0693 ps=0.75 w=0.42 l=0.15
X63 a_6260_n7369# A[6].t0 a_6423_n7485# VDD.t240 sky130_fd_pr__pfet_01v8_hvt ad=0.1092 pd=1.36 as=0.0441 ps=0.63 w=0.42 l=0.15
X64 a_5244_n7562# x2.x1.x5.A1 a_5172_n7562# VDD.t165 sky130_fd_pr__pfet_01v8_hvt ad=0.1932 pd=1.34 as=0.0441 ps=0.63 w=0.42 l=0.15
X65 x1.x2.x5.A0 A[11].t0 GND.t215 GND.t214 sky130_fd_pr__nfet_01v8 ad=0.169 pd=1.82 as=0.169 ps=1.82 w=0.65 l=0.15
X66 a_6275_n4401# x1.x2.x5.A0 a_5912_n4249# GND.t80 sky130_fd_pr__nfet_01v8 ad=0.0693 pd=0.75 as=0.09975 ps=0.895 w=0.42 l=0.15
X67 a_5245_n5955# a_4991_n6282# GND.t143 GND.t142 sky130_fd_pr__nfet_01v8 ad=0.0693 pd=0.75 as=0.1449 ps=1.11 w=0.42 l=0.15
X68 a_5244_n7235# a_4990_n7562# GND.t167 GND.t166 sky130_fd_pr__nfet_01v8 ad=0.0693 pd=0.75 as=0.1449 ps=1.11 w=0.42 l=0.15
X69 a_6307_n6809# x2.x6.A1 a_6449_n6961# GND.t8 sky130_fd_pr__nfet_01v8 ad=0.09975 pd=0.895 as=0.0693 ps=0.75 w=0.42 l=0.15
X70 a_5621_n6634# x2.P2 VDD.t112 VDD.t111 sky130_fd_pr__pfet_01v8_hvt ad=0.07665 pd=0.785 as=0.15835 ps=1.395 w=0.42 l=0.15
X71 a_5173_n6282# a_4991_n6282# VDD.t144 VDD.t143 sky130_fd_pr__pfet_01v8_hvt ad=0.0441 pd=0.63 as=0.0693 ps=0.75 w=0.42 l=0.15
X72 GND.t152 a_5908_n6987# a_5842_n6961# GND.t151 sky130_fd_pr__nfet_01v8 ad=0.1449 pd=1.11 as=0.0693 ps=0.75 w=0.42 l=0.15
X73 a_6055_n3121# x1.x5.A0 GND.t38 GND.t37 sky130_fd_pr__nfet_01v8 ad=0.0693 pd=0.75 as=0.11285 ps=1.045 w=0.42 l=0.15
X74 a_4563_n5002# x2.P0 a_4491_n5002# VDD.t85 sky130_fd_pr__pfet_01v8_hvt ad=0.1932 pd=1.34 as=0.0441 ps=0.63 w=0.42 l=0.15
X75 VDD.t160 x2.x1.x4.A x2.x5.A0 VDD.t159 sky130_fd_pr__pfet_01v8_hvt ad=0.26 pd=2.52 as=0.26 ps=2.52 w=1 l=0.15
X76 a_5479_n6809# x2.x5.A0 a_5621_n6634# VDD.t154 sky130_fd_pr__pfet_01v8_hvt ad=0.1932 pd=1.34 as=0.07665 ps=0.785 w=0.42 l=0.15
X77 GND.t233 A[3].t3 x2.x2.x5.A0 GND.t232 sky130_fd_pr__nfet_01v8 ad=0.169 pd=1.82 as=0.169 ps=1.82 w=0.65 l=0.15
X78 x2.x6.A1 a_5245_n6282# GND.t12 GND.t11 sky130_fd_pr__nfet_01v8 ad=0.169 pd=1.82 as=0.11285 ps=1.045 w=0.65 l=0.15
X79 VDD.t48 x1.P2 a_4596_n3722# VDD.t47 sky130_fd_pr__pfet_01v8_hvt ad=0.0693 pd=0.75 as=0.1176 ps=1.4 w=0.42 l=0.15
X80 a_5466_n5955# x2.x2.x5.A1 a_5245_n6282# GND.t178 sky130_fd_pr__nfet_01v8 ad=0.0693 pd=0.75 as=0.09975 ps=0.895 w=0.42 l=0.15
X81 a_5465_n7235# x2.x1.x5.A1 a_5244_n7562# GND.t164 sky130_fd_pr__nfet_01v8 ad=0.0693 pd=0.75 as=0.09975 ps=0.895 w=0.42 l=0.15
X82 GND.t149 a_6736_n6987# a_6670_n6961# GND.t148 sky130_fd_pr__nfet_01v8 ad=0.1449 pd=1.11 as=0.0693 ps=0.75 w=0.42 l=0.15
X83 a_5391_n5002# x2.P1 a_5319_n5002# VDD.t121 sky130_fd_pr__pfet_01v8_hvt ad=0.1932 pd=1.34 as=0.0441 ps=0.63 w=0.42 l=0.15
X84 Y[0].t0 a_6165_n5653# GND.t141 GND.t140 sky130_fd_pr__nfet_01v8 ad=0.182 pd=1.86 as=0.1118 ps=1.04 w=0.65 l=0.15
X85 x1.x1.x5.A0 A[15].t0 GND.t225 GND.t224 sky130_fd_pr__nfet_01v8 ad=0.169 pd=1.82 as=0.169 ps=1.82 w=0.65 l=0.15
X86 a_6276_n3121# x1.x1.x5.A0 a_5913_n2969# GND.t29 sky130_fd_pr__nfet_01v8 ad=0.0693 pd=0.75 as=0.09975 ps=0.895 w=0.42 l=0.15
X87 Y[0].t1 a_6165_n5653# VDD.t142 VDD.t141 sky130_fd_pr__pfet_01v8_hvt ad=0.475 pd=2.95 as=0.16655 ps=1.39 w=1 l=0.15
X88 a_5245_n6282# x2.x2.x5.A1 a_5173_n6282# VDD.t177 sky130_fd_pr__pfet_01v8_hvt ad=0.1932 pd=1.34 as=0.0441 ps=0.63 w=0.42 l=0.15
X89 GND.t245 A[0].t1 a_7165_n6089# GND.t244 sky130_fd_pr__nfet_01v8 ad=0.1092 pd=1.36 as=0.0567 ps=0.69 w=0.42 l=0.15
X90 VDD.t44 x1.P2 a_5424_n3722# VDD.t43 sky130_fd_pr__pfet_01v8_hvt ad=0.0693 pd=0.75 as=0.1176 ps=1.4 w=0.42 l=0.15
X91 GND.t91 x8.A a_4309_n5002# GND.t90 sky130_fd_pr__nfet_01v8 ad=0.1449 pd=1.11 as=0.1092 ps=1.36 w=0.42 l=0.15
X92 GND.t249 A[4].t1 a_7164_n7369# GND.t248 sky130_fd_pr__nfet_01v8 ad=0.1092 pd=1.36 as=0.0567 ps=0.69 w=0.42 l=0.15
X93 VDD.t5 x2.x2.x4.A x2.x5.A1 VDD.t4 sky130_fd_pr__pfet_01v8_hvt ad=0.26 pd=2.52 as=0.26 ps=2.52 w=1 l=0.15
X94 a_6372_n2794# x1.x1.x5.A1 a_5913_n2969# VDD.t30 sky130_fd_pr__pfet_01v8_hvt ad=0.0441 pd=0.63 as=0.1932 ps=1.34 w=0.42 l=0.15
X95 a_6371_n4074# x1.x2.x5.A1 a_5912_n4249# VDD.t19 sky130_fd_pr__pfet_01v8_hvt ad=0.0441 pd=0.63 as=0.1932 ps=1.34 w=0.42 l=0.15
X96 a_5912_n4249# x1.x2.x5.A1 a_6054_n4401# GND.t19 sky130_fd_pr__nfet_01v8 ad=0.09975 pd=0.895 as=0.0693 ps=0.75 w=0.42 l=0.15
X97 VDD.t221 A[1].t1 x2.x2.x5.A1 VDD.t220 sky130_fd_pr__pfet_01v8_hvt ad=0.26 pd=2.52 as=0.26 ps=2.52 w=1 l=0.15
X98 GND.t95 x8.A a_5137_n5002# GND.t94 sky130_fd_pr__nfet_01v8 ad=0.1449 pd=1.11 as=0.1092 ps=1.36 w=0.42 l=0.15
X99 VDD.t105 a_7105_n4809# x8.B VDD.t104 sky130_fd_pr__pfet_01v8_hvt ad=0.14575 pd=1.335 as=0.34 ps=2.68 w=1 l=0.15
X100 GND.t79 a_6341_n4427# a_6275_n4401# GND.t78 sky130_fd_pr__nfet_01v8 ad=0.1449 pd=1.11 as=0.0693 ps=0.75 w=0.42 l=0.15
X101 a_5245_n6282# x2.x2.x5.A0 a_5245_n5955# GND.t175 sky130_fd_pr__nfet_01v8 ad=0.09975 pd=0.895 as=0.0693 ps=0.75 w=0.42 l=0.15
X102 a_5244_n7562# x2.x1.x5.A0 a_5244_n7235# GND.t165 sky130_fd_pr__nfet_01v8 ad=0.09975 pd=0.895 as=0.0693 ps=0.75 w=0.42 l=0.15
X103 VDD.t42 a_6342_n3147# a_6372_n2794# VDD.t41 sky130_fd_pr__pfet_01v8_hvt ad=0.0693 pd=0.75 as=0.0441 ps=0.63 w=0.42 l=0.15
X104 VDD.t78 a_6341_n4427# a_6371_n4074# VDD.t77 sky130_fd_pr__pfet_01v8_hvt ad=0.0693 pd=0.75 as=0.0441 ps=0.63 w=0.42 l=0.15
X105 a_7164_n7369# A[5].t2 GND.t237 GND.t236 sky130_fd_pr__nfet_01v8 ad=0.0567 pd=0.69 as=0.10025 ps=0.985 w=0.42 l=0.15
X106 a_7165_n6089# A[1].t2 GND.t229 GND.t228 sky130_fd_pr__nfet_01v8 ad=0.0567 pd=0.69 as=0.10025 ps=0.985 w=0.42 l=0.15
X107 a_4217_n2871# A[12].t1 a_4135_n2871# VDD.t236 sky130_fd_pr__pfet_01v8_hvt ad=0.0441 pd=0.63 as=0.1092 ps=1.36 w=0.42 l=0.15
X108 a_5913_n2969# x1.x1.x5.A1 a_6055_n3121# GND.t30 sky130_fd_pr__nfet_01v8 ad=0.09975 pd=0.895 as=0.0693 ps=0.75 w=0.42 l=0.15
X109 a_4216_n4151# A[8].t1 a_4134_n4151# VDD.t201 sky130_fd_pr__pfet_01v8_hvt ad=0.0441 pd=0.63 as=0.1092 ps=1.36 w=0.42 l=0.15
X110 GND.t10 a_5912_n4249# x1.x6.A1 GND.t9 sky130_fd_pr__nfet_01v8 ad=0.11285 pd=1.045 as=0.169 ps=1.82 w=0.65 l=0.15
X111 VDD.t136 x8.B a_5705_n5653# VDD.t135 sky130_fd_pr__pfet_01v8_hvt ad=0.16655 pd=1.39 as=0.0567 ps=0.69 w=0.42 l=0.15
X112 Y[2].t1 a_5245_n5653# GND.t3 GND.t2 sky130_fd_pr__nfet_01v8 ad=0.182 pd=1.86 as=0.1118 ps=1.04 w=0.65 l=0.15
X113 a_6815_n2871# x1.x1.x3.B a_6733_n2871# VDD.t31 sky130_fd_pr__pfet_01v8_hvt ad=0.0441 pd=0.63 as=0.1092 ps=1.36 w=0.42 l=0.15
X114 a_6814_n4151# x1.x2.x3.B a_6732_n4151# VDD.t80 sky130_fd_pr__pfet_01v8_hvt ad=0.0441 pd=0.63 as=0.1092 ps=1.36 w=0.42 l=0.15
X115 Y[2].t0 a_5245_n5653# VDD.t3 VDD.t2 sky130_fd_pr__pfet_01v8_hvt ad=0.475 pd=2.95 as=0.16655 ps=1.39 w=1 l=0.15
X116 VDD.t158 x2.x5.A0 a_5458_n7562# VDD.t157 sky130_fd_pr__pfet_01v8_hvt ad=0.15835 pd=1.395 as=0.07665 ps=0.785 w=0.42 l=0.15
X117 GND.t190 x2.x5.A1 a_5466_n5955# GND.t189 sky130_fd_pr__nfet_01v8 ad=0.11285 pd=1.045 as=0.0693 ps=0.75 w=0.42 l=0.15
X118 GND.t157 x2.x5.A0 a_5465_n7235# GND.t156 sky130_fd_pr__nfet_01v8 ad=0.11285 pd=1.045 as=0.0693 ps=0.75 w=0.42 l=0.15
X119 VDD.t95 x8.A a_4777_n5002# VDD.t94 sky130_fd_pr__pfet_01v8_hvt ad=0.15835 pd=1.395 as=0.07665 ps=0.785 w=0.42 l=0.15
X120 VDD.t183 A[13].t3 a_4217_n2871# VDD.t182 sky130_fd_pr__pfet_01v8_hvt ad=0.14575 pd=1.335 as=0.0441 ps=0.63 w=0.42 l=0.15
X121 GND.t43 a_6342_n3147# a_6276_n3121# GND.t42 sky130_fd_pr__nfet_01v8 ad=0.1449 pd=1.11 as=0.0693 ps=0.75 w=0.42 l=0.15
X122 VDD.t213 A[9].t3 a_4216_n4151# VDD.t212 sky130_fd_pr__pfet_01v8_hvt ad=0.14575 pd=1.335 as=0.0441 ps=0.63 w=0.42 l=0.15
X123 GND.t21 a_5913_n2969# x1.x6.A0 GND.t20 sky130_fd_pr__nfet_01v8 ad=0.11285 pd=1.045 as=0.169 ps=1.82 w=0.65 l=0.15
X124 VDD.t33 x1.x1.x4.A a_6815_n2871# VDD.t32 sky130_fd_pr__pfet_01v8_hvt ad=0.14575 pd=1.335 as=0.0441 ps=0.63 w=0.42 l=0.15
X125 VDD.t84 x1.x2.x4.A a_6814_n4151# VDD.t83 sky130_fd_pr__pfet_01v8_hvt ad=0.14575 pd=1.335 as=0.0441 ps=0.63 w=0.42 l=0.15
X126 GND.t73 x1.V x8.A GND.t72 sky130_fd_pr__nfet_01v8 ad=0.169 pd=1.82 as=0.169 ps=1.82 w=0.65 l=0.15
X127 GND.t177 x2.x2.x3.B a_4567_n6089# GND.t176 sky130_fd_pr__nfet_01v8 ad=0.1092 pd=1.36 as=0.0567 ps=0.69 w=0.42 l=0.15
X128 GND.t209 x2.x1.x3.B a_4566_n7369# GND.t208 sky130_fd_pr__nfet_01v8 ad=0.1092 pd=1.36 as=0.0567 ps=0.69 w=0.42 l=0.15
X129 a_7105_n4809# x2.V a_7268_n4925# VDD.t124 sky130_fd_pr__pfet_01v8_hvt ad=0.1092 pd=1.36 as=0.0441 ps=0.63 w=0.42 l=0.15
X130 a_6251_n5653# x11.A a_6165_n5653# GND.t127 sky130_fd_pr__nfet_01v8 ad=0.0567 pd=0.69 as=0.1176 ps=1.4 w=0.42 l=0.15
X131 a_4850_n3722# x1.x6.A1 a_4778_n3722# VDD.t65 sky130_fd_pr__pfet_01v8_hvt ad=0.1932 pd=1.34 as=0.0441 ps=0.63 w=0.42 l=0.15
X132 a_6736_n6987# x2.P2 GND.t111 GND.t110 sky130_fd_pr__nfet_01v8 ad=0.1092 pd=1.36 as=0.1449 ps=1.11 w=0.42 l=0.15
X133 VDD.t153 a_5908_n6987# a_5938_n6634# VDD.t152 sky130_fd_pr__pfet_01v8_hvt ad=0.0693 pd=0.75 as=0.0441 ps=0.63 w=0.42 l=0.15
X134 VDD.t189 x2.x5.A1 a_5459_n6282# VDD.t188 sky130_fd_pr__pfet_01v8_hvt ad=0.15835 pd=1.395 as=0.07665 ps=0.785 w=0.42 l=0.15
X135 a_4871_n5653# x8.A a_4785_n5653# GND.t102 sky130_fd_pr__nfet_01v8 ad=0.0567 pd=0.69 as=0.1176 ps=1.4 w=0.42 l=0.15
X136 x9.A a_6219_n5002# VDD.t107 VDD.t106 sky130_fd_pr__pfet_01v8_hvt ad=0.26 pd=2.52 as=0.15835 ps=1.395 w=1 l=0.15
X137 GND.t235 A[5].t3 x2.x1.x5.A1 GND.t234 sky130_fd_pr__nfet_01v8 ad=0.169 pd=1.82 as=0.169 ps=1.82 w=0.65 l=0.15
X138 a_4563_n4675# a_4309_n5002# GND.t89 GND.t88 sky130_fd_pr__nfet_01v8 ad=0.0693 pd=0.75 as=0.1449 ps=1.11 w=0.42 l=0.15
X139 GND.t241 A[7].t3 x2.x1.x5.A0 GND.t240 sky130_fd_pr__nfet_01v8 ad=0.169 pd=1.82 as=0.169 ps=1.82 w=0.65 l=0.15
X140 x2.x6.A0 a_5244_n7562# GND.t163 GND.t162 sky130_fd_pr__nfet_01v8 ad=0.169 pd=1.82 as=0.11285 ps=1.045 w=0.65 l=0.15
X141 a_6342_n3147# x1.x5.A0 VDD.t39 VDD.t38 sky130_fd_pr__pfet_01v8_hvt ad=0.1176 pd=1.4 as=0.0693 ps=0.75 w=0.42 l=0.15
X142 a_4566_n7369# x2.x1.x4.A GND.t159 GND.t158 sky130_fd_pr__nfet_01v8 ad=0.0567 pd=0.69 as=0.10025 ps=0.985 w=0.42 l=0.15
X143 VDD.t53 a_6564_n3529# x1.V VDD.t52 sky130_fd_pr__pfet_01v8_hvt ad=0.14575 pd=1.335 as=0.34 ps=2.68 w=1 l=0.15
X144 a_6727_n3645# x1.x4.A VDD.t70 VDD.t69 sky130_fd_pr__pfet_01v8_hvt ad=0.0441 pd=0.63 as=0.14575 ps=1.335 w=0.42 l=0.15
X145 a_5391_n4675# a_5137_n5002# GND.t124 GND.t123 sky130_fd_pr__nfet_01v8 ad=0.0693 pd=0.75 as=0.1449 ps=1.11 w=0.42 l=0.15
X146 a_4784_n4675# x2.P0 a_4563_n5002# GND.t87 sky130_fd_pr__nfet_01v8 ad=0.0693 pd=0.75 as=0.09975 ps=0.895 w=0.42 l=0.15
X147 a_6260_n7369# A[7].t2 GND.t239 GND.t238 sky130_fd_pr__nfet_01v8 ad=0.0567 pd=0.69 as=0.10025 ps=0.985 w=0.42 l=0.15
X148 a_6261_n6089# A[3].t2 GND.t231 GND.t230 sky130_fd_pr__nfet_01v8 ad=0.0567 pd=0.69 as=0.10025 ps=0.985 w=0.42 l=0.15
X149 x1.x1.x5.A0 A[15].t2 VDD.t217 VDD.t216 sky130_fd_pr__pfet_01v8_hvt ad=0.26 pd=2.52 as=0.26 ps=2.52 w=1 l=0.15
X150 a_5319_n5002# a_5137_n5002# VDD.t123 VDD.t122 sky130_fd_pr__pfet_01v8_hvt ad=0.0441 pd=0.63 as=0.0693 ps=0.75 w=0.42 l=0.15
X151 x1.x2.x5.A0 A[11].t2 VDD.t210 VDD.t209 sky130_fd_pr__pfet_01v8_hvt ad=0.26 pd=2.52 as=0.26 ps=2.52 w=1 l=0.15
X152 Y[4].t0 x8.B GND.t138 GND.t137 sky130_fd_pr__nfet_01v8 ad=0.169 pd=1.82 as=0.169 ps=1.82 w=0.65 l=0.15
X153 a_5612_n4675# x2.P1 a_5391_n5002# GND.t122 sky130_fd_pr__nfet_01v8 ad=0.0693 pd=0.75 as=0.09975 ps=0.895 w=0.42 l=0.15
X154 VDD.t91 x8.A a_5965_n5002# VDD.t90 sky130_fd_pr__pfet_01v8_hvt ad=0.0693 pd=0.75 as=0.1176 ps=1.4 w=0.42 l=0.15
X155 GND.t49 x1.P2 a_4596_n3722# GND.t48 sky130_fd_pr__nfet_01v8 ad=0.1449 pd=1.11 as=0.1092 ps=1.36 w=0.42 l=0.15
X156 a_6564_n3529# x1.x3.B a_6727_n3645# VDD.t171 sky130_fd_pr__pfet_01v8_hvt ad=0.1092 pd=1.36 as=0.0441 ps=0.63 w=0.42 l=0.15
X157 x1.x5.A1 x1.x2.x4.A GND.t84 GND.t83 sky130_fd_pr__nfet_01v8 ad=0.169 pd=1.82 as=0.169 ps=1.82 w=0.65 l=0.15
X158 Y[4].t1 x8.B VDD.t138 VDD.t137 sky130_fd_pr__pfet_01v8_hvt ad=0.26 pd=2.52 as=0.26 ps=2.52 w=1 l=0.15
X159 VDD.t229 A[5].t1 x2.x1.x5.A1 VDD.t228 sky130_fd_pr__pfet_01v8_hvt ad=0.26 pd=2.52 as=0.26 ps=2.52 w=1 l=0.15
X160 a_5621_n6961# x2.P2 GND.t115 GND.t114 sky130_fd_pr__nfet_01v8 ad=0.0693 pd=0.75 as=0.11285 ps=1.045 w=0.42 l=0.15
X161 VDD.t233 A[7].t1 x2.x1.x5.A0 VDD.t232 sky130_fd_pr__pfet_01v8_hvt ad=0.26 pd=2.52 as=0.26 ps=2.52 w=1 l=0.15
X162 x2.x6.A0 a_5244_n7562# VDD.t164 VDD.t163 sky130_fd_pr__pfet_01v8_hvt ad=0.26 pd=2.52 as=0.15835 ps=1.395 w=1 l=0.15
X163 a_6342_n3147# x1.x5.A0 GND.t40 GND.t39 sky130_fd_pr__nfet_01v8 ad=0.1092 pd=1.36 as=0.1449 ps=1.11 w=0.42 l=0.15
X164 GND.t45 x1.P2 a_5424_n3722# GND.t44 sky130_fd_pr__nfet_01v8 ad=0.1449 pd=1.11 as=0.1092 ps=1.36 w=0.42 l=0.15
X165 a_4567_n6089# x2.x2.x4.A GND.t7 GND.t6 sky130_fd_pr__nfet_01v8 ad=0.0567 pd=0.69 as=0.10025 ps=0.985 w=0.42 l=0.15
X166 GND.t201 a_5479_n6809# x2.P1 GND.t200 sky130_fd_pr__nfet_01v8 ad=0.11285 pd=1.045 as=0.169 ps=1.82 w=0.65 l=0.15
X167 GND.t180 a_7165_n6089# x2.x2.x3.B GND.t179 sky130_fd_pr__nfet_01v8 ad=0.10025 pd=0.985 as=0.169 ps=1.82 w=0.65 l=0.15
X168 a_6219_n5002# x2.P2 a_6147_n5002# VDD.t108 sky130_fd_pr__pfet_01v8_hvt ad=0.1932 pd=1.34 as=0.0441 ps=0.63 w=0.42 l=0.15
X169 a_6165_n5653# x11.A VDD.t126 VDD.t125 sky130_fd_pr__pfet_01v8_hvt ad=0.0567 pd=0.69 as=0.1176 ps=1.4 w=0.42 l=0.15
X170 VDD.t199 a_5479_n6809# x2.P1 VDD.t198 sky130_fd_pr__pfet_01v8_hvt ad=0.15835 pd=1.395 as=0.26 ps=2.52 w=1 l=0.15
X171 x1.x5.A0 x1.x1.x4.A GND.t36 GND.t35 sky130_fd_pr__nfet_01v8 ad=0.169 pd=1.82 as=0.169 ps=1.82 w=0.65 l=0.15
X172 a_4785_n5653# x8.A VDD.t101 VDD.t100 sky130_fd_pr__pfet_01v8_hvt ad=0.0567 pd=0.69 as=0.1176 ps=1.4 w=0.42 l=0.15
X173 VDD.t225 A[3].t1 x2.x2.x5.A0 VDD.t224 sky130_fd_pr__pfet_01v8_hvt ad=0.26 pd=2.52 as=0.26 ps=2.52 w=1 l=0.15
X174 a_5071_n3395# x1.x6.A1 a_4850_n3722# GND.t66 sky130_fd_pr__nfet_01v8 ad=0.0693 pd=0.75 as=0.09975 ps=0.895 w=0.42 l=0.15
X175 GND.t99 x8.A a_4784_n4675# GND.t98 sky130_fd_pr__nfet_01v8 ad=0.11285 pd=1.045 as=0.0693 ps=0.75 w=0.42 l=0.15
X176 x2.x6.A1 a_5245_n6282# VDD.t12 VDD.t11 sky130_fd_pr__pfet_01v8_hvt ad=0.26 pd=2.52 as=0.15835 ps=1.395 w=1 l=0.15
X177 GND.t16 a_6261_n6089# x2.x2.x4.A GND.t15 sky130_fd_pr__nfet_01v8 ad=0.10025 pd=0.985 as=0.169 ps=1.82 w=0.65 l=0.15
X178 VDD.t21 a_5913_n2969# x1.x6.A0 VDD.t20 sky130_fd_pr__pfet_01v8_hvt ad=0.15835 pd=1.395 as=0.26 ps=2.52 w=1 l=0.15
X179 VDD.t10 a_5912_n4249# x1.x6.A1 VDD.t9 sky130_fd_pr__pfet_01v8_hvt ad=0.15835 pd=1.395 as=0.26 ps=2.52 w=1 l=0.15
X180 GND.t136 x8.B a_6251_n5653# GND.t135 sky130_fd_pr__nfet_01v8 ad=0.1118 pd=1.04 as=0.0567 ps=0.69 w=0.42 l=0.15
X181 a_5458_n7562# x2.x1.x5.A0 a_5244_n7562# VDD.t166 sky130_fd_pr__pfet_01v8_hvt ad=0.07665 pd=0.785 as=0.1932 ps=1.34 w=0.42 l=0.15
X182 x1.x1.x4.A a_5039_n2871# GND.t23 GND.t22 sky130_fd_pr__nfet_01v8 ad=0.169 pd=1.82 as=0.10025 ps=0.985 w=0.65 l=0.15
X183 x1.x2.x5.A1 A[9].t0 GND.t221 GND.t220 sky130_fd_pr__nfet_01v8 ad=0.169 pd=1.82 as=0.169 ps=1.82 w=0.65 l=0.15
X184 a_7268_n4925# x1.V VDD.t74 VDD.t73 sky130_fd_pr__pfet_01v8_hvt ad=0.0441 pd=0.63 as=0.14575 ps=1.335 w=0.42 l=0.15
X185 GND.t130 x8.B a_4871_n5653# GND.t129 sky130_fd_pr__nfet_01v8 ad=0.1118 pd=1.04 as=0.0567 ps=0.69 w=0.42 l=0.15
X186 a_6307_n6809# x2.x6.A0 a_6449_n6634# VDD.t151 sky130_fd_pr__pfet_01v8_hvt ad=0.1932 pd=1.34 as=0.07665 ps=0.785 w=0.42 l=0.15
X187 a_4778_n3722# a_4596_n3722# VDD.t170 VDD.t169 sky130_fd_pr__pfet_01v8_hvt ad=0.0441 pd=0.63 as=0.0693 ps=0.75 w=0.42 l=0.15
X188 a_4777_n5002# x1.P0 a_4563_n5002# VDD.t66 sky130_fd_pr__pfet_01v8_hvt ad=0.07665 pd=0.785 as=0.1932 ps=1.34 w=0.42 l=0.15
X189 a_4735_n6711# x2.x3.B GND.t193 GND.t192 sky130_fd_pr__nfet_01v8 ad=0.0567 pd=0.69 as=0.1092 ps=1.36 w=0.42 l=0.15
X190 GND.t14 a_4567_n6089# x2.x3.B GND.t13 sky130_fd_pr__nfet_01v8 ad=0.10025 pd=0.985 as=0.169 ps=1.82 w=0.65 l=0.15
X191 x2.V a_4735_n6711# GND.t199 GND.t198 sky130_fd_pr__nfet_01v8 ad=0.169 pd=1.82 as=0.10025 ps=0.985 w=0.65 l=0.15
X192 a_4850_n3395# a_4596_n3722# GND.t169 GND.t168 sky130_fd_pr__nfet_01v8 ad=0.0693 pd=0.75 as=0.1449 ps=1.11 w=0.42 l=0.15
X193 a_5606_n3722# a_5424_n3722# VDD.t62 VDD.t61 sky130_fd_pr__pfet_01v8_hvt ad=0.0441 pd=0.63 as=0.0693 ps=0.75 w=0.42 l=0.15
X194 a_5605_n5002# x1.P1 a_5391_n5002# VDD.t172 sky130_fd_pr__pfet_01v8_hvt ad=0.07665 pd=0.785 as=0.1932 ps=1.34 w=0.42 l=0.15
X195 a_5908_n6987# x2.P2 VDD.t114 VDD.t113 sky130_fd_pr__pfet_01v8_hvt ad=0.1176 pd=1.4 as=0.0693 ps=0.75 w=0.42 l=0.15
X196 x2.V a_4735_n6711# VDD.t197 VDD.t196 sky130_fd_pr__pfet_01v8_hvt ad=0.34 pd=2.68 as=0.14575 ps=1.335 w=1 l=0.15
X197 a_7165_n6089# A[0].t0 a_7328_n6205# VDD.t237 sky130_fd_pr__pfet_01v8_hvt ad=0.1092 pd=1.36 as=0.0441 ps=0.63 w=0.42 l=0.15
X198 a_5459_n6282# x2.x2.x5.A0 a_5245_n6282# VDD.t175 sky130_fd_pr__pfet_01v8_hvt ad=0.07665 pd=0.785 as=0.1932 ps=1.34 w=0.42 l=0.15
X199 x1.x1.x5.A1 A[13].t0 GND.t184 GND.t183 sky130_fd_pr__nfet_01v8 ad=0.169 pd=1.82 as=0.169 ps=1.82 w=0.65 l=0.15
X200 x11.A a_4563_n5002# GND.t104 GND.t103 sky130_fd_pr__nfet_01v8 ad=0.169 pd=1.82 as=0.11285 ps=1.045 w=0.65 l=0.15
X201 VDD.t97 x8.A a_5605_n5002# VDD.t96 sky130_fd_pr__pfet_01v8_hvt ad=0.15835 pd=1.395 as=0.07665 ps=0.785 w=0.42 l=0.15
X202 GND.t251 A[6].t1 a_6260_n7369# GND.t250 sky130_fd_pr__nfet_01v8 ad=0.1092 pd=1.36 as=0.0567 ps=0.69 w=0.42 l=0.15
X203 GND.t247 A[2].t1 a_6261_n6089# GND.t246 sky130_fd_pr__nfet_01v8 ad=0.1092 pd=1.36 as=0.0567 ps=0.69 w=0.42 l=0.15
X204 a_5064_n3722# x1.x6.A0 a_4850_n3722# VDD.t28 sky130_fd_pr__pfet_01v8_hvt ad=0.07665 pd=0.785 as=0.1932 ps=1.34 w=0.42 l=0.15
X205 VDD.t50 x1.P2 a_5064_n3722# VDD.t49 sky130_fd_pr__pfet_01v8_hvt ad=0.15835 pd=1.395 as=0.07665 ps=0.785 w=0.42 l=0.15
X206 GND.t132 x8.B a_5331_n5653# GND.t131 sky130_fd_pr__nfet_01v8 ad=0.1118 pd=1.04 as=0.0567 ps=0.69 w=0.42 l=0.15
X207 a_5678_n3722# x1.x5.A1 a_5606_n3722# VDD.t56 sky130_fd_pr__pfet_01v8_hvt ad=0.1932 pd=1.34 as=0.0441 ps=0.63 w=0.42 l=0.15
X208 x10.A a_5391_n5002# GND.t121 GND.t120 sky130_fd_pr__nfet_01v8 ad=0.169 pd=1.82 as=0.11285 ps=1.045 w=0.65 l=0.15
X209 GND.t93 x8.A a_5965_n5002# GND.t92 sky130_fd_pr__nfet_01v8 ad=0.1449 pd=1.11 as=0.1092 ps=1.36 w=0.42 l=0.15
X210 a_6341_n4427# x1.x5.A1 VDD.t60 VDD.t59 sky130_fd_pr__pfet_01v8_hvt ad=0.1176 pd=1.4 as=0.0693 ps=0.75 w=0.42 l=0.15
X211 GND.t69 x1.x4.A x1.P2 GND.t68 sky130_fd_pr__nfet_01v8 ad=0.169 pd=1.82 as=0.169 ps=1.82 w=0.65 l=0.15
X212 a_6341_n4427# x1.x5.A1 GND.t59 GND.t58 sky130_fd_pr__nfet_01v8 ad=0.1092 pd=1.36 as=0.1449 ps=1.11 w=0.42 l=0.15
X213 GND.t211 a_7164_n7369# x2.x1.x3.B GND.t210 sky130_fd_pr__nfet_01v8 ad=0.10025 pd=0.985 as=0.169 ps=1.82 w=0.65 l=0.15
X214 a_6219_n4675# a_5965_n5002# GND.t119 GND.t118 sky130_fd_pr__nfet_01v8 ad=0.0693 pd=0.75 as=0.1449 ps=1.11 w=0.42 l=0.15
X215 VDD.t134 x8.B a_6165_n5653# VDD.t133 sky130_fd_pr__pfet_01v8_hvt ad=0.16655 pd=1.39 as=0.0567 ps=0.69 w=0.42 l=0.15
X216 GND.t213 A[11].t1 a_5038_n4151# GND.t212 sky130_fd_pr__nfet_01v8 ad=0.10025 pd=0.985 as=0.0567 ps=0.69 w=0.42 l=0.15
X217 a_4567_n6089# x2.x2.x3.B a_4730_n6205# VDD.t176 sky130_fd_pr__pfet_01v8_hvt ad=0.1092 pd=1.36 as=0.0441 ps=0.63 w=0.42 l=0.15
X218 x1.x5.A0 x1.x1.x4.A VDD.t35 VDD.t34 sky130_fd_pr__pfet_01v8_hvt ad=0.26 pd=2.52 as=0.26 ps=2.52 w=1 l=0.15
X219 x1.P0 a_4850_n3722# GND.t65 GND.t64 sky130_fd_pr__nfet_01v8 ad=0.169 pd=1.82 as=0.11285 ps=1.045 w=0.65 l=0.15
X220 x1.x5.A1 x1.x2.x4.A VDD.t82 VDD.t81 sky130_fd_pr__pfet_01v8_hvt ad=0.26 pd=2.52 as=0.26 ps=2.52 w=1 l=0.15
X221 VDD.t132 x8.B a_4785_n5653# VDD.t131 sky130_fd_pr__pfet_01v8_hvt ad=0.16655 pd=1.39 as=0.0567 ps=0.69 w=0.42 l=0.15
X222 VDD.t72 x1.V x8.A VDD.t71 sky130_fd_pr__pfet_01v8_hvt ad=0.26 pd=2.52 as=0.26 ps=2.52 w=1 l=0.15
X223 GND.t147 a_6260_n7369# x2.x1.x4.A GND.t146 sky130_fd_pr__nfet_01v8 ad=0.10025 pd=0.985 as=0.169 ps=1.82 w=0.65 l=0.15
X224 x1.P1 a_5678_n3722# GND.t56 GND.t55 sky130_fd_pr__nfet_01v8 ad=0.169 pd=1.82 as=0.11285 ps=1.045 w=0.65 l=0.15
X225 a_4563_n5002# x1.P0 a_4563_n4675# GND.t67 sky130_fd_pr__nfet_01v8 ad=0.09975 pd=0.895 as=0.0693 ps=0.75 w=0.42 l=0.15
X226 GND.t223 A[15].t1 a_5039_n2871# GND.t222 sky130_fd_pr__nfet_01v8 ad=0.10025 pd=0.985 as=0.0567 ps=0.69 w=0.42 l=0.15
X227 a_5038_n4151# A[10].t0 GND.t203 GND.t202 sky130_fd_pr__nfet_01v8 ad=0.0567 pd=0.69 as=0.1092 ps=1.36 w=0.42 l=0.15
X228 a_4817_n6711# x2.x3.B a_4735_n6711# VDD.t191 sky130_fd_pr__pfet_01v8_hvt ad=0.0441 pd=0.63 as=0.1092 ps=1.36 w=0.42 l=0.15
X229 x1.x1.x4.A a_5039_n2871# VDD.t23 VDD.t22 sky130_fd_pr__pfet_01v8_hvt ad=0.34 pd=2.68 as=0.14575 ps=1.335 w=1 l=0.15
X230 a_5892_n3722# x1.x5.A0 a_5678_n3722# VDD.t40 sky130_fd_pr__pfet_01v8_hvt ad=0.07665 pd=0.785 as=0.1932 ps=1.34 w=0.42 l=0.15
X231 x1.x2.x4.A a_5038_n4151# GND.t1 GND.t0 sky130_fd_pr__nfet_01v8 ad=0.169 pd=1.82 as=0.10025 ps=0.985 w=0.65 l=0.15
X232 VDD.t206 a_7164_n7369# x2.x1.x3.B VDD.t205 sky130_fd_pr__pfet_01v8_hvt ad=0.14575 pd=1.335 as=0.34 ps=2.68 w=1 l=0.15
X233 VDD.t46 x1.P2 a_5892_n3722# VDD.t45 sky130_fd_pr__pfet_01v8_hvt ad=0.15835 pd=1.395 as=0.07665 ps=0.785 w=0.42 l=0.15
X234 a_5391_n5002# x1.P1 a_5391_n4675# GND.t172 sky130_fd_pr__nfet_01v8 ad=0.09975 pd=0.895 as=0.0693 ps=0.75 w=0.42 l=0.15
X235 VDD.t130 x8.B a_5245_n5653# VDD.t129 sky130_fd_pr__pfet_01v8_hvt ad=0.16655 pd=1.39 as=0.0567 ps=0.69 w=0.42 l=0.15
X236 a_5331_n5653# x9.A a_5245_n5653# GND.t139 sky130_fd_pr__nfet_01v8 ad=0.0567 pd=0.69 as=0.1176 ps=1.4 w=0.42 l=0.15
X237 GND.t197 x2.x4.A a_4735_n6711# GND.t196 sky130_fd_pr__nfet_01v8 ad=0.10025 pd=0.985 as=0.0567 ps=0.69 w=0.42 l=0.15
X238 GND.t145 a_4566_n7369# x2.x4.A GND.t144 sky130_fd_pr__nfet_01v8 ad=0.10025 pd=0.985 as=0.169 ps=1.82 w=0.65 l=0.15
X239 a_6219_n5002# x1.P2 a_6219_n4675# GND.t52 sky130_fd_pr__nfet_01v8 ad=0.09975 pd=0.895 as=0.0693 ps=0.75 w=0.42 l=0.15
X240 a_6147_n5002# a_5965_n5002# VDD.t118 VDD.t117 sky130_fd_pr__pfet_01v8_hvt ad=0.0441 pd=0.63 as=0.0693 ps=0.75 w=0.42 l=0.15
X241 a_6449_n6634# x2.P2 VDD.t116 VDD.t115 sky130_fd_pr__pfet_01v8_hvt ad=0.07665 pd=0.785 as=0.15835 ps=1.395 w=0.42 l=0.15
X242 VDD.t195 x2.x4.A a_4817_n6711# VDD.t194 sky130_fd_pr__pfet_01v8_hvt ad=0.14575 pd=1.335 as=0.0441 ps=0.63 w=0.42 l=0.15
X243 a_5039_n2871# A[14].t0 GND.t217 GND.t216 sky130_fd_pr__nfet_01v8 ad=0.0567 pd=0.69 as=0.1092 ps=1.36 w=0.42 l=0.15
X244 GND.t97 x8.A a_5612_n4675# GND.t96 sky130_fd_pr__nfet_01v8 ad=0.11285 pd=1.045 as=0.0693 ps=0.75 w=0.42 l=0.15
X245 VDD.t148 a_6260_n7369# x2.x1.x4.A VDD.t147 sky130_fd_pr__pfet_01v8_hvt ad=0.14575 pd=1.335 as=0.34 ps=2.68 w=1 l=0.15